_cell_length_a 26.343
_cell_length_b 26.343
_cell_length_c 26.343
_cell_angle_alpha 90.000
_cell_angle_beta 90.000
_cell_angle_gamma 90.000
_cell_volume 18280.821

_symmetry_cell_setting triclinic
_symmetry_space_group_name_Hall 'P 1'
_symmetry_space_group_name_H-M 'P 1'
_symmetry_Int_Tables_number 1
_symmetry_equiv_pos_as_xyz 'x,y,z'

loop_
_atom_site_label
_atom_site_type_symbol
_atom_site_fract_x
_atom_site_fract_y
_atom_site_fract_z
_atom_site_charge
Cu Cu 0.285 0.285 0.000 0.000
Cu Cu 0.715 0.715 0.000 0.000
Cu Cu 0.715 0.285 0.000 0.000
Cu Cu 0.285 0.715 0.000 0.000
Cu Cu 0.000 0.285 0.285 0.000
Cu Cu 0.000 0.715 0.715 0.000
Cu Cu 0.000 0.715 0.285 0.000
Cu Cu 0.000 0.285 0.715 0.000
Cu Cu 0.285 0.000 0.285 0.000
Cu Cu 0.715 0.000 0.715 0.000
Cu Cu 0.285 0.000 0.715 0.000
Cu Cu 0.715 0.000 0.285 0.000
Cu Cu 0.285 0.785 0.500 0.000
Cu Cu 0.715 0.215 0.500 0.000
Cu Cu 0.715 0.785 0.500 0.000
Cu Cu 0.285 0.215 0.500 0.000
Cu Cu 0.000 0.785 0.785 0.000
Cu Cu 0.000 0.215 0.215 0.000
Cu Cu 0.000 0.215 0.785 0.000
Cu Cu 0.000 0.785 0.215 0.000
Cu Cu 0.285 0.500 0.785 0.000
Cu Cu 0.715 0.500 0.215 0.000
Cu Cu 0.285 0.500 0.215 0.000
Cu Cu 0.715 0.500 0.785 0.000
Cu Cu 0.785 0.285 0.500 0.000
Cu Cu 0.215 0.715 0.500 0.000
Cu Cu 0.215 0.285 0.500 0.000
Cu Cu 0.785 0.715 0.500 0.000
Cu Cu 0.500 0.285 0.785 0.000
Cu Cu 0.500 0.715 0.215 0.000
Cu Cu 0.500 0.715 0.785 0.000
Cu Cu 0.500 0.285 0.215 0.000
Cu Cu 0.785 0.000 0.785 0.000
Cu Cu 0.215 0.000 0.215 0.000
Cu Cu 0.785 0.000 0.215 0.000
Cu Cu 0.215 0.000 0.785 0.000
Cu Cu 0.785 0.785 0.000 0.000
Cu Cu 0.215 0.215 0.000 0.000
Cu Cu 0.215 0.785 0.000 0.000
Cu Cu 0.785 0.215 0.000 0.000
Cu Cu 0.500 0.785 0.285 0.000
Cu Cu 0.500 0.215 0.715 0.000
Cu Cu 0.500 0.215 0.285 0.000
Cu Cu 0.500 0.785 0.715 0.000
Cu Cu 0.785 0.500 0.285 0.000
Cu Cu 0.215 0.500 0.715 0.000
Cu Cu 0.785 0.500 0.715 0.000
Cu Cu 0.215 0.500 0.285 0.000
H H 0.380 0.228 0.880 0.000
H H 0.620 0.772 0.880 0.000
H H 0.620 0.228 0.120 0.000
H H 0.380 0.772 0.120 0.000
H H 0.880 0.380 0.228 0.000
H H 0.880 0.620 0.772 0.000
H H 0.120 0.620 0.228 0.000
H H 0.120 0.380 0.772 0.000
H H 0.228 0.880 0.380 0.000
H H 0.772 0.880 0.620 0.000
H H 0.228 0.120 0.620 0.000
H H 0.228 0.380 0.120 0.000
H H 0.772 0.620 0.120 0.000
H H 0.228 0.620 0.880 0.000
H H 0.772 0.380 0.880 0.000
H H 0.380 0.880 0.772 0.000
H H 0.620 0.880 0.228 0.000
H H 0.620 0.120 0.772 0.000
H H 0.380 0.120 0.228 0.000
H H 0.880 0.228 0.620 0.000
H H 0.880 0.772 0.380 0.000
H H 0.120 0.228 0.380 0.000
H H 0.620 0.772 0.120 0.000
H H 0.380 0.228 0.120 0.000
H H 0.380 0.772 0.880 0.000
H H 0.620 0.228 0.880 0.000
H H 0.120 0.620 0.772 0.000
H H 0.120 0.380 0.228 0.000
H H 0.880 0.380 0.772 0.000
H H 0.880 0.620 0.228 0.000
H H 0.772 0.120 0.620 0.000
H H 0.228 0.120 0.380 0.000
H H 0.772 0.880 0.380 0.000
H H 0.228 0.880 0.620 0.000
H H 0.772 0.620 0.880 0.000
H H 0.228 0.380 0.880 0.000
H H 0.772 0.380 0.120 0.000
H H 0.228 0.620 0.120 0.000
H H 0.620 0.120 0.228 0.000
H H 0.380 0.120 0.772 0.000
H H 0.380 0.880 0.228 0.000
H H 0.620 0.880 0.772 0.000
H H 0.120 0.772 0.380 0.000
H H 0.120 0.228 0.620 0.000
H H 0.880 0.772 0.620 0.000
H H 0.880 0.228 0.380 0.000
H H 0.380 0.728 0.380 0.000
H H 0.620 0.272 0.380 0.000
H H 0.620 0.728 0.620 0.000
H H 0.380 0.272 0.620 0.000
H H 0.880 0.880 0.728 0.000
H H 0.880 0.120 0.272 0.000
H H 0.120 0.120 0.728 0.000
H H 0.120 0.880 0.272 0.000
H H 0.620 0.380 0.728 0.000
H H 0.620 0.620 0.272 0.000
H H 0.380 0.620 0.728 0.000
H H 0.880 0.728 0.120 0.000
H H 0.880 0.272 0.880 0.000
H H 0.120 0.728 0.880 0.000
H H 0.120 0.272 0.120 0.000
H H 0.620 0.272 0.620 0.000
H H 0.380 0.728 0.620 0.000
H H 0.380 0.272 0.380 0.000
H H 0.620 0.728 0.380 0.000
H H 0.120 0.120 0.272 0.000
H H 0.120 0.880 0.728 0.000
H H 0.880 0.880 0.272 0.000
H H 0.880 0.120 0.728 0.000
H H 0.620 0.620 0.728 0.000
H H 0.380 0.620 0.272 0.000
H H 0.380 0.380 0.728 0.000
H H 0.620 0.380 0.272 0.000
H H 0.120 0.272 0.880 0.000
H H 0.120 0.728 0.120 0.000
H H 0.880 0.272 0.120 0.000
H H 0.880 0.728 0.880 0.000
H H 0.272 0.880 0.120 0.000
H H 0.728 0.120 0.120 0.000
H H 0.272 0.120 0.880 0.000
H H 0.728 0.380 0.620 0.000
H H 0.272 0.620 0.620 0.000
H H 0.728 0.620 0.380 0.000
H H 0.272 0.380 0.380 0.000
H H 0.272 0.120 0.120 0.000
H H 0.728 0.120 0.880 0.000
H H 0.272 0.880 0.880 0.000
H H 0.728 0.880 0.120 0.000
H H 0.728 0.380 0.380 0.000
H H 0.272 0.380 0.620 0.000
H H 0.728 0.620 0.620 0.000
C C 0.297 0.203 0.931 0.000
C C 0.703 0.797 0.931 0.000
C C 0.703 0.203 0.069 0.000
C C 0.297 0.797 0.069 0.000
C C 0.931 0.297 0.203 0.000
C C 0.931 0.703 0.797 0.000
C C 0.069 0.703 0.203 0.000
C C 0.069 0.297 0.797 0.000
C C 0.203 0.931 0.297 0.000
C C 0.797 0.931 0.703 0.000
C C 0.203 0.069 0.703 0.000
C C 0.797 0.069 0.297 0.000
C C 0.203 0.297 0.069 0.000
C C 0.797 0.703 0.069 0.000
C C 0.203 0.703 0.931 0.000
C C 0.797 0.297 0.931 0.000
C C 0.297 0.931 0.797 0.000
C C 0.703 0.931 0.203 0.000
C C 0.703 0.069 0.797 0.000
C C 0.297 0.069 0.203 0.000
C C 0.931 0.203 0.703 0.000
C C 0.931 0.797 0.297 0.000
C C 0.069 0.203 0.297 0.000
C C 0.069 0.797 0.703 0.000
C C 0.703 0.797 0.069 0.000
C C 0.297 0.203 0.069 0.000
C C 0.297 0.797 0.931 0.000
C C 0.703 0.203 0.931 0.000
C C 0.069 0.703 0.797 0.000
C C 0.069 0.297 0.203 0.000
C C 0.931 0.297 0.797 0.000
C C 0.931 0.703 0.203 0.000
C C 0.797 0.069 0.703 0.000
C C 0.203 0.069 0.297 0.000
C C 0.797 0.931 0.297 0.000
C C 0.203 0.931 0.703 0.000
C C 0.797 0.703 0.931 0.000
C C 0.203 0.297 0.931 0.000
C C 0.797 0.297 0.069 0.000
C C 0.203 0.703 0.069 0.000
C C 0.703 0.069 0.203 0.000
C C 0.297 0.069 0.797 0.000
C C 0.297 0.931 0.203 0.000
C C 0.703 0.931 0.797 0.000
C C 0.069 0.797 0.297 0.000
C C 0.069 0.203 0.703 0.000
C C 0.931 0.797 0.703 0.000
C C 0.931 0.203 0.297 0.000
C C 0.297 0.703 0.431 0.000
C C 0.703 0.297 0.431 0.000
C C 0.703 0.703 0.569 0.000
C C 0.297 0.297 0.569 0.000
C C 0.203 0.431 0.797 0.000
C C 0.797 0.431 0.203 0.000
C C 0.203 0.569 0.203 0.000
C C 0.797 0.569 0.797 0.000
C C 0.203 0.797 0.569 0.000
C C 0.797 0.203 0.569 0.000
C C 0.203 0.203 0.431 0.000
C C 0.797 0.797 0.431 0.000
C C 0.297 0.431 0.297 0.000
C C 0.703 0.431 0.703 0.000
C C 0.703 0.569 0.297 0.000
C C 0.297 0.569 0.703 0.000
C C 0.703 0.297 0.569 0.000
C C 0.297 0.703 0.569 0.000
C C 0.297 0.297 0.431 0.000
C C 0.703 0.703 0.431 0.000
C C 0.797 0.569 0.203 0.000
C C 0.203 0.569 0.797 0.000
C C 0.797 0.431 0.797 0.000
C C 0.203 0.431 0.203 0.000
C C 0.797 0.203 0.431 0.000
C C 0.203 0.797 0.431 0.000
C C 0.797 0.797 0.569 0.000
C C 0.203 0.203 0.569 0.000
C C 0.703 0.569 0.703 0.000
C C 0.297 0.569 0.297 0.000
C C 0.297 0.431 0.703 0.000
C C 0.703 0.431 0.297 0.000
C C 0.431 0.297 0.703 0.000
C C 0.431 0.703 0.297 0.000
C C 0.569 0.703 0.703 0.000
C C 0.569 0.297 0.297 0.000
C C 0.431 0.203 0.203 0.000
C C 0.431 0.797 0.797 0.000
C C 0.569 0.203 0.797 0.000
C C 0.569 0.797 0.203 0.000
C C 0.569 0.703 0.297 0.000
C C 0.569 0.297 0.703 0.000
C C 0.431 0.297 0.297 0.000
C C 0.431 0.703 0.703 0.000
C C 0.569 0.797 0.797 0.000
C C 0.569 0.203 0.203 0.000
C C 0.431 0.797 0.203 0.000
C C 0.431 0.203 0.797 0.000
C C 0.322 0.178 0.887 0.000
C C 0.678 0.822 0.887 0.000
C C 0.678 0.178 0.113 0.000
C C 0.322 0.822 0.113 0.000
C C 0.887 0.322 0.178 0.000
C C 0.887 0.678 0.822 0.000
C C 0.113 0.678 0.178 0.000
C C 0.113 0.322 0.822 0.000
C C 0.178 0.887 0.322 0.000
C C 0.822 0.887 0.678 0.000
C C 0.178 0.113 0.678 0.000
C C 0.822 0.113 0.322 0.000
C C 0.178 0.322 0.113 0.000
C C 0.822 0.678 0.113 0.000
C C 0.178 0.678 0.887 0.000
C C 0.822 0.322 0.887 0.000
C C 0.322 0.887 0.822 0.000
C C 0.678 0.887 0.178 0.000
C C 0.678 0.113 0.822 0.000
C C 0.322 0.113 0.178 0.000
C C 0.887 0.178 0.678 0.000
C C 0.887 0.822 0.322 0.000
C C 0.113 0.178 0.322 0.000
C C 0.113 0.822 0.678 0.000
C C 0.678 0.822 0.113 0.000
C C 0.322 0.178 0.113 0.000
C C 0.322 0.822 0.887 0.000
C C 0.678 0.178 0.887 0.000
C C 0.113 0.678 0.822 0.000
C C 0.113 0.322 0.178 0.000
C C 0.887 0.322 0.822 0.000
C C 0.887 0.678 0.178 0.000
C C 0.822 0.113 0.678 0.000
C C 0.178 0.113 0.322 0.000
C C 0.822 0.887 0.322 0.000
C C 0.178 0.887 0.678 0.000
C C 0.822 0.678 0.887 0.000
C C 0.178 0.322 0.887 0.000
C C 0.822 0.322 0.113 0.000
C C 0.178 0.678 0.113 0.000
C C 0.678 0.113 0.178 0.000
C C 0.322 0.113 0.822 0.000
C C 0.322 0.887 0.178 0.000
C C 0.678 0.887 0.822 0.000
C C 0.113 0.822 0.322 0.000
C C 0.113 0.178 0.678 0.000
C C 0.887 0.822 0.678 0.000
C C 0.887 0.178 0.322 0.000
C C 0.322 0.678 0.387 0.000
C C 0.678 0.322 0.387 0.000
C C 0.678 0.678 0.613 0.000
C C 0.322 0.322 0.613 0.000
C C 0.178 0.387 0.822 0.000
C C 0.822 0.387 0.178 0.000
C C 0.178 0.613 0.178 0.000
C C 0.822 0.613 0.822 0.000
C C 0.178 0.822 0.613 0.000
C C 0.822 0.178 0.613 0.000
C C 0.178 0.178 0.387 0.000
C C 0.822 0.822 0.387 0.000
C C 0.322 0.387 0.322 0.000
C C 0.678 0.387 0.678 0.000
C C 0.678 0.613 0.322 0.000
C C 0.322 0.613 0.678 0.000
C C 0.678 0.322 0.613 0.000
C C 0.322 0.678 0.613 0.000
C C 0.322 0.322 0.387 0.000
C C 0.678 0.678 0.387 0.000
C C 0.822 0.613 0.178 0.000
C C 0.178 0.613 0.822 0.000
C C 0.822 0.387 0.822 0.000
C C 0.178 0.387 0.178 0.000
C C 0.822 0.178 0.387 0.000
C C 0.178 0.822 0.387 0.000
C C 0.822 0.822 0.613 0.000
C C 0.178 0.178 0.613 0.000
C C 0.678 0.613 0.678 0.000
C C 0.322 0.613 0.322 0.000
C C 0.322 0.387 0.678 0.000
C C 0.678 0.387 0.322 0.000
C C 0.387 0.322 0.678 0.000
C C 0.387 0.678 0.322 0.000
C C 0.613 0.678 0.678 0.000
C C 0.613 0.322 0.322 0.000
C C 0.387 0.178 0.178 0.000
C C 0.387 0.822 0.822 0.000
C C 0.613 0.178 0.822 0.000
C C 0.613 0.822 0.178 0.000
C C 0.613 0.678 0.322 0.000
C C 0.613 0.322 0.678 0.000
C C 0.387 0.322 0.322 0.000
C C 0.387 0.678 0.678 0.000
C C 0.613 0.822 0.822 0.000
C C 0.613 0.178 0.178 0.000
C C 0.387 0.822 0.178 0.000
C C 0.387 0.178 0.822 0.000
C C 0.365 0.199 0.866 0.000
C C 0.635 0.801 0.866 0.000
C C 0.635 0.199 0.134 0.000
C C 0.365 0.801 0.134 0.000
C C 0.866 0.365 0.199 0.000
C C 0.866 0.635 0.801 0.000
C C 0.134 0.635 0.199 0.000
C C 0.134 0.365 0.801 0.000
C C 0.199 0.866 0.365 0.000
C C 0.801 0.866 0.635 0.000
C C 0.199 0.134 0.635 0.000
C C 0.801 0.134 0.365 0.000
C C 0.199 0.365 0.134 0.000
C C 0.801 0.635 0.134 0.000
C C 0.199 0.635 0.866 0.000
C C 0.801 0.365 0.866 0.000
C C 0.365 0.866 0.801 0.000
C C 0.635 0.866 0.199 0.000
C C 0.635 0.134 0.801 0.000
C C 0.365 0.134 0.199 0.000
C C 0.866 0.199 0.635 0.000
C C 0.866 0.801 0.365 0.000
C C 0.134 0.199 0.365 0.000
C C 0.134 0.801 0.635 0.000
C C 0.635 0.801 0.134 0.000
C C 0.365 0.199 0.134 0.000
C C 0.365 0.801 0.866 0.000
C C 0.635 0.199 0.866 0.000
C C 0.134 0.635 0.801 0.000
C C 0.134 0.365 0.199 0.000
C C 0.866 0.365 0.801 0.000
C C 0.866 0.635 0.199 0.000
C C 0.801 0.134 0.635 0.000
C C 0.199 0.134 0.365 0.000
C C 0.801 0.866 0.365 0.000
C C 0.199 0.866 0.635 0.000
C C 0.801 0.635 0.866 0.000
C C 0.199 0.365 0.866 0.000
C C 0.801 0.365 0.134 0.000
C C 0.199 0.635 0.134 0.000
C C 0.635 0.134 0.199 0.000
C C 0.365 0.134 0.801 0.000
C C 0.365 0.866 0.199 0.000
C C 0.635 0.866 0.801 0.000
C C 0.134 0.801 0.365 0.000
C C 0.134 0.199 0.635 0.000
C C 0.866 0.801 0.635 0.000
C C 0.866 0.199 0.365 0.000
C C 0.365 0.699 0.365 0.000
C C 0.635 0.301 0.365 0.000
C C 0.635 0.699 0.634 0.000
C C 0.365 0.301 0.634 0.000
C C 0.866 0.865 0.699 0.000
C C 0.866 0.135 0.301 0.000
C C 0.134 0.135 0.699 0.000
C C 0.134 0.865 0.301 0.000
C C 0.365 0.365 0.301 0.000
C C 0.635 0.365 0.699 0.000
C C 0.635 0.634 0.301 0.000
C C 0.365 0.634 0.699 0.000
C C 0.866 0.699 0.135 0.000
C C 0.866 0.301 0.865 0.000
C C 0.134 0.699 0.865 0.000
C C 0.134 0.301 0.135 0.000
C C 0.635 0.301 0.634 0.000
C C 0.365 0.699 0.634 0.000
C C 0.365 0.301 0.365 0.000
C C 0.635 0.699 0.365 0.000
C C 0.134 0.135 0.301 0.000
C C 0.134 0.865 0.699 0.000
C C 0.866 0.865 0.301 0.000
C C 0.866 0.135 0.699 0.000
C C 0.635 0.634 0.699 0.000
C C 0.365 0.634 0.301 0.000
C C 0.365 0.365 0.699 0.000
C C 0.635 0.365 0.301 0.000
C C 0.134 0.301 0.865 0.000
C C 0.134 0.699 0.135 0.000
C C 0.866 0.301 0.135 0.000
C C 0.866 0.699 0.865 0.000
C C 0.699 0.866 0.865 0.000
C C 0.301 0.866 0.135 0.000
C C 0.699 0.134 0.135 0.000
C C 0.301 0.134 0.865 0.000
C C 0.699 0.365 0.634 0.000
C C 0.301 0.635 0.634 0.000
C C 0.699 0.635 0.365 0.000
C C 0.301 0.365 0.365 0.000
C C 0.301 0.134 0.135 0.000
C C 0.699 0.134 0.865 0.000
C C 0.301 0.866 0.865 0.000
C C 0.699 0.866 0.135 0.000
C C 0.301 0.635 0.365 0.000
C C 0.699 0.365 0.365 0.000
C C 0.301 0.365 0.634 0.000
C C 0.699 0.635 0.634 0.000
O O 0.317 0.243 0.948 0.000
O O 0.683 0.757 0.948 0.000
O O 0.683 0.243 0.052 0.000
O O 0.317 0.757 0.052 0.000
O O 0.948 0.317 0.243 0.000
O O 0.948 0.683 0.757 0.000
O O 0.052 0.683 0.243 0.000
O O 0.052 0.317 0.757 0.000
O O 0.243 0.948 0.317 0.000
O O 0.757 0.948 0.683 0.000
O O 0.243 0.052 0.683 0.000
O O 0.757 0.052 0.317 0.000
O O 0.243 0.317 0.052 0.000
O O 0.757 0.683 0.052 0.000
O O 0.243 0.683 0.948 0.000
O O 0.757 0.317 0.948 0.000
O O 0.317 0.948 0.757 0.000
O O 0.683 0.948 0.243 0.000
O O 0.683 0.052 0.757 0.000
O O 0.317 0.052 0.243 0.000
O O 0.948 0.243 0.683 0.000
O O 0.948 0.757 0.317 0.000
O O 0.052 0.243 0.317 0.000
O O 0.052 0.757 0.683 0.000
O O 0.683 0.757 0.052 0.000
O O 0.317 0.243 0.052 0.000
O O 0.317 0.757 0.948 0.000
O O 0.683 0.243 0.948 0.000
O O 0.052 0.683 0.757 0.000
O O 0.052 0.317 0.243 0.000
O O 0.948 0.317 0.757 0.000
O O 0.948 0.683 0.243 0.000
O O 0.757 0.052 0.683 0.000
O O 0.243 0.052 0.317 0.000
O O 0.757 0.948 0.317 0.000
O O 0.243 0.948 0.683 0.000
O O 0.757 0.683 0.948 0.000
O O 0.243 0.317 0.948 0.000
O O 0.757 0.317 0.052 0.000
O O 0.243 0.683 0.052 0.000
O O 0.683 0.052 0.243 0.000
O O 0.317 0.052 0.757 0.000
O O 0.317 0.948 0.243 0.000
O O 0.683 0.948 0.757 0.000
O O 0.052 0.757 0.317 0.000
O O 0.052 0.243 0.683 0.000
O O 0.948 0.757 0.683 0.000
O O 0.948 0.243 0.317 0.000
O O 0.317 0.743 0.448 0.000
O O 0.683 0.257 0.448 0.000
O O 0.683 0.743 0.552 0.000
O O 0.317 0.257 0.552 0.000
O O 0.948 0.817 0.743 0.000
O O 0.948 0.183 0.257 0.000
O O 0.052 0.183 0.743 0.000
O O 0.052 0.817 0.257 0.000
O O 0.243 0.448 0.817 0.000
O O 0.757 0.448 0.183 0.000
O O 0.243 0.552 0.183 0.000
O O 0.757 0.552 0.817 0.000
O O 0.243 0.817 0.552 0.000
O O 0.757 0.183 0.552 0.000
O O 0.243 0.183 0.448 0.000
O O 0.757 0.817 0.448 0.000
O O 0.317 0.448 0.257 0.000
O O 0.683 0.448 0.743 0.000
O O 0.683 0.552 0.257 0.000
O O 0.317 0.552 0.743 0.000
O O 0.948 0.743 0.183 0.000
O O 0.948 0.257 0.817 0.000
O O 0.052 0.743 0.817 0.000
O O 0.052 0.257 0.183 0.000
O O 0.683 0.257 0.552 0.000
O O 0.317 0.743 0.552 0.000
O O 0.317 0.257 0.448 0.000
O O 0.683 0.743 0.448 0.000
O O 0.052 0.183 0.257 0.000
O O 0.052 0.817 0.743 0.000
O O 0.948 0.817 0.257 0.000
O O 0.948 0.183 0.743 0.000
O O 0.757 0.552 0.183 0.000
O O 0.243 0.552 0.817 0.000
O O 0.757 0.448 0.817 0.000
O O 0.243 0.448 0.183 0.000
O O 0.757 0.183 0.448 0.000
O O 0.243 0.817 0.448 0.000
O O 0.757 0.817 0.552 0.000
O O 0.243 0.183 0.552 0.000
O O 0.683 0.552 0.743 0.000
O O 0.317 0.552 0.257 0.000
O O 0.317 0.448 0.743 0.000
O O 0.683 0.448 0.257 0.000
O O 0.052 0.257 0.817 0.000
O O 0.052 0.743 0.183 0.000
O O 0.948 0.257 0.183 0.000
O O 0.948 0.743 0.817 0.000
O O 0.817 0.243 0.448 0.000
O O 0.183 0.757 0.448 0.000
O O 0.183 0.243 0.552 0.000
O O 0.817 0.757 0.552 0.000
O O 0.448 0.317 0.743 0.000
O O 0.448 0.683 0.257 0.000
O O 0.552 0.683 0.743 0.000
O O 0.552 0.317 0.257 0.000
O O 0.743 0.948 0.817 0.000
O O 0.257 0.948 0.183 0.000
O O 0.743 0.052 0.183 0.000
O O 0.257 0.052 0.817 0.000
O O 0.743 0.317 0.552 0.000
O O 0.257 0.683 0.552 0.000
O O 0.743 0.683 0.448 0.000
O O 0.257 0.317 0.448 0.000
O O 0.817 0.948 0.257 0.000
O O 0.183 0.948 0.743 0.000
O O 0.183 0.052 0.257 0.000
O O 0.817 0.052 0.743 0.000
O O 0.448 0.243 0.183 0.000
O O 0.448 0.757 0.817 0.000
O O 0.552 0.243 0.817 0.000
O O 0.552 0.757 0.183 0.000
O O 0.183 0.757 0.552 0.000
O O 0.817 0.243 0.552 0.000
O O 0.817 0.757 0.448 0.000
O O 0.183 0.243 0.448 0.000
O O 0.552 0.683 0.257 0.000
O O 0.552 0.317 0.743 0.000
O O 0.448 0.317 0.257 0.000
O O 0.448 0.683 0.743 0.000
O O 0.257 0.052 0.183 0.000
O O 0.743 0.052 0.817 0.000
O O 0.257 0.948 0.817 0.000
O O 0.743 0.948 0.183 0.000
O O 0.257 0.683 0.448 0.000
O O 0.743 0.317 0.448 0.000
O O 0.257 0.317 0.552 0.000
O O 0.743 0.683 0.552 0.000
O O 0.183 0.052 0.743 0.000
O O 0.817 0.052 0.257 0.000
O O 0.817 0.948 0.743 0.000
O O 0.183 0.948 0.257 0.000
O O 0.552 0.757 0.817 0.000
O O 0.552 0.243 0.183 0.000
O O 0.448 0.757 0.183 0.000
O O 0.448 0.243 0.817 0.000
O O 0.817 0.743 0.948 0.000
O O 0.183 0.257 0.948 0.000
O O 0.183 0.743 0.052 0.000
O O 0.817 0.257 0.052 0.000
O O 0.448 0.817 0.243 0.000
O O 0.448 0.183 0.757 0.000
O O 0.552 0.183 0.243 0.000
O O 0.552 0.817 0.757 0.000
O O 0.743 0.448 0.317 0.000
O O 0.257 0.448 0.683 0.000
O O 0.743 0.552 0.683 0.000
O O 0.257 0.552 0.317 0.000
O O 0.743 0.817 0.052 0.000
O O 0.257 0.183 0.052 0.000
O O 0.743 0.183 0.948 0.000
O O 0.257 0.817 0.948 0.000
O O 0.817 0.448 0.757 0.000
O O 0.183 0.448 0.243 0.000
O O 0.183 0.552 0.757 0.000
O O 0.817 0.552 0.243 0.000
O O 0.448 0.743 0.683 0.000
O O 0.448 0.257 0.317 0.000
O O 0.552 0.743 0.317 0.000
O O 0.552 0.257 0.683 0.000
O O 0.183 0.257 0.052 0.000
O O 0.817 0.743 0.052 0.000
O O 0.817 0.257 0.948 0.000
O O 0.183 0.743 0.948 0.000
O O 0.552 0.183 0.757 0.000
O O 0.552 0.817 0.243 0.000
O O 0.448 0.817 0.757 0.000
O O 0.448 0.183 0.243 0.000
O O 0.257 0.552 0.683 0.000
O O 0.743 0.552 0.317 0.000
O O 0.257 0.448 0.317 0.000
O O 0.743 0.448 0.683 0.000
O O 0.257 0.183 0.948 0.000
O O 0.743 0.817 0.948 0.000
O O 0.257 0.817 0.052 0.000
O O 0.743 0.183 0.052 0.000
O O 0.183 0.552 0.243 0.000
O O 0.817 0.552 0.757 0.000
O O 0.817 0.448 0.243 0.000
O O 0.183 0.448 0.757 0.000
O O 0.552 0.257 0.317 0.000
O O 0.552 0.743 0.683 0.000
O O 0.448 0.257 0.683 0.000
O O 0.448 0.743 0.317 0.000
O O 0.114 0.760 0.614 0.000
Li Li 0.057 0.727 0.587 0.000
O O 0.740 0.886 0.886 0.000
Li Li 0.806 0.911 0.881 0.000
O O 0.760 0.114 0.386 0.000
Li Li 0.730 0.062 0.425 0.000
O O 0.386 0.386 0.260 0.000
Li Li 0.422 0.380 0.199 0.000
O O 0.260 0.614 0.386 0.000
Li Li 0.221 0.556 0.401 0.000
